C2H4
APtclcactv10022302273D 0   0.00000     0.00000
 
  6  5  0  0  0  0  0  0  0  0999 V2000
    0    0    0     C   0  0  0  0  0  0  0  0  0  0  0  0
    0    0    0     C   0  0  0  0  0  0  0  0  0  0  0  0
    0    0    0     H   0  0  0  0  0  0  0  0  0  0  0  0
    0    0    0     H   0  0  0  0  0  0  0  0  0  0  0  0
    0    0    0     H   0  0  0  0  0  0  0  0  0  0  0  0
    0    0    0     H   0  0  0  0  0  0  0  0  0  0  0  0
  1  2  2  0  0  0  0
  1  3  1  0  0  0  0
  1  4  1  0  0  0  0
  2  5  1  0  0  0  0
  2  6  1  0  0  0  0
M  END
$$$$
