C17H19NO3
APtclcactv10022313453D 0   0.00000     0.00000
 
 40 44  0  0  1  0  0  0  0  0999 V2000
   -0.5090   -2.1955    1.3768 C   0  0  0  0  0  0  0  0  0  0  0  0
   -1.7863   -2.3522    0.8629 C   0  0  0  0  0  0  0  0  0  0  0  0
   -2.3348   -1.5104   -0.1033 C   0  0  0  0  0  0  0  0  0  0  0  0
   -3.6000   -1.6912   -0.5682 O   0  0  0  0  0  0  0  0  0  0  0  0
   -1.5255   -0.4717   -0.5724 C   0  0  0  0  0  0  0  0  0  0  0  0
   -0.2348   -0.3822   -0.0656 C   0  0  0  0  0  0  0  0  0  0  0  0
    0.4256    0.7838   -0.7583 C   0  0  1  0  0  0  0  0  0  0  0  0
   -0.8019    1.6259   -1.0913 C   0  0  1  0  0  0  0  0  0  0  0  0
   -0.6355    2.3406   -1.8973 H   0  0  0  0  0  0  0  0  0  0  0  0
   -1.7551    0.5514   -1.4280 O   0  0  0  0  0  0  0  0  0  0  0  0
   -1.3835    2.2606    0.1773 C   0  0  1  0  0  0  0  0  0  0  0  0
   -1.8903    3.1846   -0.1012 H   0  0  0  0  0  0  0  0  0  0  0  0
   -2.3520    1.3650    0.7269 O   0  0  0  0  0  0  0  0  0  0  0  0
   -0.3859    2.5726    1.2325 C   0  0  0  0  0  0  0  0  0  0  0  0
    0.8465    2.1760    1.2701 C   0  0  0  0  0  0  0  0  0  0  0  0
    1.4413    1.3695    0.1939 C   0  0  1  0  0  0  0  0  0  0  0  0
    2.0496    2.0403   -0.4127 H   0  0  0  0  0  0  0  0  0  0  0  0
    2.3553    0.2510    0.6761 C   0  0  1  0  0  0  0  0  0  0  0  0
    3.1189    0.6918    1.3169 H   0  0  0  0  0  0  0  0  0  0  0  0
    1.6634   -0.8530    1.4584 C   0  0  0  0  0  0  0  0  0  0  0  0
    0.3026   -1.1713    0.9218 C   0  0  0  0  0  0  0  0  0  0  0  0
    3.0284   -0.3282   -0.4992 N   0  0  0  0  0  0  0  0  0  0  0  0
    4.0152   -1.3389   -0.0958 C   0  0  0  0  0  0  0  0  0  0  0  0
    2.0892   -0.8743   -1.4823 C   0  0  0  0  0  0  0  0  0  0  0  0
    1.1510    0.2639   -2.0017 C   0  0  0  0  0  0  0  0  0  0  0  0
   -0.1478   -2.8717    2.1375 H   0  0  0  0  0  0  0  0  0  0  0  0
   -2.3886   -3.1700    1.2301 H   0  0  0  0  0  0  0  0  0  0  0  0
   -4.2753   -1.2146   -0.0662 H   0  0  0  0  0  0  0  0  0  0  0  0
   -2.7724    1.6882    1.5355 H   0  0  0  0  0  0  0  0  0  0  0  0
   -0.7218    3.1926    2.0505 H   0  0  0  0  0  0  0  0  0  0  0  0
    1.4522    2.4331    2.1265 H   0  0  0  0  0  0  0  0  0  0  0  0
    2.2613   -1.7614    1.3846 H   0  0  0  0  0  0  0  0  0  0  0  0
    1.6088   -0.5576    2.5062 H   0  0  0  0  0  0  0  0  0  0  0  0
    3.5000   -2.1997    0.3305 H   0  0  0  0  0  0  0  0  0  0  0  0
    4.5894   -1.6540   -0.9671 H   0  0  0  0  0  0  0  0  0  0  0  0
    4.6882   -0.9130    0.6483 H   0  0  0  0  0  0  0  0  0  0  0  0
    2.6474   -1.2621   -2.3344 H   0  0  0  0  0  0  0  0  0  0  0  0
    1.5240   -1.6866   -1.0253 H   0  0  0  0  0  0  0  0  0  0  0  0
    0.4073   -0.1501   -2.6826 H   0  0  0  0  0  0  0  0  0  0  0  0
    1.7398    1.0258   -2.5125 H   0  0  0  0  0  0  0  0  0  0  0  0
  1  2  2  0  0  0  0
  2  3  1  0  0  0  0
  3  4  1  0  0  0  0
  3  5  2  0  0  0  0
  5  6  1  0  0  0  0
  6  7  1  0  0  0  0
  7  8  1  0  0  0  0
  8  9  1  0  0  0  0
  8 10  1  0  0  0  0
  5 10  1  0  0  0  0
  8 11  1  0  0  0  0
 11 12  1  0  0  0  0
 11 13  1  0  0  0  0
 11 14  1  0  0  0  0
 14 15  2  0  0  0  0
 15 16  1  0  0  0  0
 16 17  1  0  0  0  0
  7 16  1  0  0  0  0
 16 18  1  0  0  0  0
 18 19  1  0  0  0  0
 18 20  1  0  0  0  0
 20 21  1  0  0  0  0
  1 21  1  0  0  0  0
  6 21  2  0  0  0  0
 18 22  1  0  0  0  0
 22 23  1  0  0  0  0
 22 24  1  0  0  0  0
 24 25  1  0  0  0  0
  7 25  1  0  0  0  0
  1 26  1  0  0  0  0
  2 27  1  0  0  0  0
  4 28  1  0  0  0  0
 13 29  1  0  0  0  0
 14 30  1  0  0  0  0
 15 31  1  0  0  0  0
 20 32  1  0  0  0  0
 20 33  1  0  0  0  0
 23 34  1  0  0  0  0
 23 35  1  0  0  0  0
 23 36  1  0  0  0  0
 24 37  1  0  0  0  0
 24 38  1  0  0  0  0
 25 39  1  0  0  0  0
 25 40  1  0  0  0  0
M  END
$$$$
