C14H14O3
APtclcactv10092412213D 0   0.00000     0.00000
 
 31 32  0  0  0  0  0  0  0  0999 V2000
    0.5561   -1.1107    0.1403 C   0  0  0  0  0  0  0  0  0  0  0  0
   -1.8309   -1.5811   -0.1419 C   0  0  0  0  0  0  0  0  0  0  0  0
   -2.3989    1.1427    0.1565 C   0  0  0  0  0  0  0  0  0  0  0  0
   -0.0120    1.6097    0.4384 C   0  0  0  0  0  0  0  0  0  0  0  0
   -3.1108   -1.1258   -0.2018 C   0  0  0  0  0  0  0  0  0  0  0  0
    1.2681    1.1505    0.4983 C   0  0  0  0  0  0  0  0  0  0  0  0
    3.5679   -0.3173    1.7883 C   0  0  0  0  0  0  0  0  0  0  0  0
   -5.6874   -0.3366   -0.3383 C   0  0  0  0  0  0  0  0  0  0  0  0
    1.5512   -0.2056    0.3497 C   0  0  0  0  0  0  0  0  0  0  0  0
   -3.3976    0.2349   -0.0530 C   0  0  0  0  0  0  0  0  0  0  0  0
    3.2536    0.7693   -1.4173 O   0  0  0  0  0  0  0  0  0  0  0  0
    5.0942   -0.2808   -0.7905 O   0  0  0  0  0  0  0  0  0  0  0  0
    3.7858   -0.0099   -0.6626 C   0  0  0  0  0  0  0  0  0  0  0  0
   -4.6868    0.6594   -0.1173 O   0  0  0  0  0  0  0  0  0  0  0  0
    5.5688    0.1718   -1.5011 H   0  0  0  0  0  0  0  0  0  0  0  0
    2.9806   -0.6776    0.4223 C   0  0  0  0  0  0  0  0  0  0  0  0
   -0.7776   -0.6747    0.0725 C   0  0  0  0  0  0  0  0  0  0  0  0
   -1.0659    0.7052    0.2237 C   0  0  0  0  0  0  0  0  0  0  0  0
    0.7913   -2.1582    0.0225 H   0  0  0  0  0  0  0  0  0  0  0  0
   -1.6242   -2.6347   -0.2582 H   0  0  0  0  0  0  0  0  0  0  0  0
   -2.6328    2.1910    0.2696 H   0  0  0  0  0  0  0  0  0  0  0  0
   -0.2166    2.6636    0.5557 H   0  0  0  0  0  0  0  0  0  0  0  0
   -3.9173   -1.8248   -0.3666 H   0  0  0  0  0  0  0  0  0  0  0  0
    2.0762    1.8478    0.6630 H   0  0  0  0  0  0  0  0  0  0  0  0
    3.0136   -1.7586    0.2862 H   0  0  0  0  0  0  0  0  0  0  0  0
    3.5348    0.7636    1.9244 H   0  0  0  0  0  0  0  0  0  0  0  0
    2.9855   -0.8002    2.5730 H   0  0  0  0  0  0  0  0  0  0  0  0
    4.6017   -0.6587    1.8409 H   0  0  0  0  0  0  0  0  0  0  0  0
   -6.6695    0.1354   -0.3681 H   0  0  0  0  0  0  0  0  0  0  0  0
   -5.4968   -0.8389   -1.2868 H   0  0  0  0  0  0  0  0  0  0  0  0
   -5.6592   -1.0659    0.4712 H   0  0  0  0  0  0  0  0  0  0  0  0
 17 18  1  0  0  0  0
  1 17  2  0  0  0  0
  2 17  1  0  0  0  0
  3 18  1  0  0  0  0
  4 18  2  0  0  0  0
  1  9  1  0  0  0  0
  2  5  2  0  0  0  0
  3 10  2  0  0  0  0
  4  6  1  0  0  0  0
  9 16  1  0  0  0  0
 10 14  1  0  0  0  0
 13 16  1  0  0  0  0
  7 16  1  0  0  0  0
  8 14  1  0  0  0  0
 12 13  1  0  0  0  0
 11 13  2  0  0  0  0
  6  9  2  0  0  0  0
  5 10  1  0  0  0  0
  1 19  1  0  0  0  0
  2 20  1  0  0  0  0
  3 21  1  0  0  0  0
  4 22  1  0  0  0  0
  5 23  1  0  0  0  0
  6 24  1  0  0  0  0
 16 25  1  0  0  0  0
  7 26  1  0  0  0  0
  7 27  1  0  0  0  0
  7 28  1  0  0  0  0
  8 29  1  0  0  0  0
  8 30  1  0  0  0  0
  8 31  1  0  0  0  0
 12 15  1  0  0  0  0
M  END
$$$$

