C10H14N2
APtclcactv10022318523D 0   0.00000     0.00000
 
 26 27  0  0  0  0  0  0  0  0999 V2000
   -2.8341    0.3882    0.7748 N   0  0  0  0  0  0  0  0  0  0  0  0
   -3.1564   -0.0904   -0.4108 C   0  0  0  0  0  0  0  0  0  0  0  0
   -2.1798   -0.3879   -1.3426 C   0  0  0  0  0  0  0  0  0  0  0  0
   -0.8489   -0.1769   -1.0170 C   0  0  0  0  0  0  0  0  0  0  0  0
   -0.5487    0.3277    0.2394 C   0  0  0  0  0  0  0  0  0  0  0  0
   -1.5789    0.6014    1.1188 C   0  0  0  0  0  0  0  0  0  0  0  0
    0.8828    0.5738    0.6407 C   0  0  0  0  0  0  0  0  0  0  0  0
    1.6069   -0.7076    0.7275 N   0  0  0  0  0  0  0  0  0  0  0  0
    0.7026   -1.8404    0.4888 C   0  0  0  0  0  0  0  0  0  0  0  0
    2.7093   -0.6930   -0.2575 C   0  0  0  0  0  0  0  0  0  0  0  0
    3.0116    0.8083   -0.4908 C   0  0  0  0  0  0  0  0  0  0  0  0
    1.5900    1.4267   -0.4335 C   0  0  0  0  0  0  0  0  0  0  0  0
   -4.1956   -0.2523   -0.6565 H   0  0  0  0  0  0  0  0  0  0  0  0
   -2.4501   -0.7800   -2.3119 H   0  0  0  0  0  0  0  0  0  0  0  0
   -0.0644   -0.4004   -1.7248 H   0  0  0  0  0  0  0  0  0  0  0  0
   -1.3535    0.9945    2.0991 H   0  0  0  0  0  0  0  0  0  0  0  0
    0.9154    1.0840    1.6034 H   0  0  0  0  0  0  0  0  0  0  0  0
    0.3855   -1.8387   -0.5541 H   0  0  0  0  0  0  0  0  0  0  0  0
    1.2224   -2.7729    0.7089 H   0  0  0  0  0  0  0  0  0  0  0  0
   -0.1710   -1.7502    1.1343 H   0  0  0  0  0  0  0  0  0  0  0  0
    3.5863   -1.1983    0.1470 H   0  0  0  0  0  0  0  0  0  0  0  0
    2.3934   -1.1655   -1.1877 H   0  0  0  0  0  0  0  0  0  0  0  0
    3.6432    1.2073    0.3029 H   0  0  0  0  0  0  0  0  0  0  0  0
    3.4676    0.9675   -1.4679 H   0  0  0  0  0  0  0  0  0  0  0  0
    1.0878    1.3283   -1.3959 H   0  0  0  0  0  0  0  0  0  0  0  0
    1.6363    2.4717   -0.1269 H   0  0  0  0  0  0  0  0  0  0  0  0
  1  2  2  0  0  0  0
  2  3  1  0  0  0  0
  3  4  2  0  0  0  0
  4  5  1  0  0  0  0
  5  6  2  0  0  0  0
  1  6  1  0  0  0  0
  5  7  1  0  0  0  0
  7  8  1  0  0  0  0
  8  9  1  0  0  0  0
  8 10  1  0  0  0  0
 10 11  1  0  0  0  0
 11 12  1  0  0  0  0
  7 12  1  0  0  0  0
  2 13  1  0  0  0  0
  3 14  1  0  0  0  0
  4 15  1  0  0  0  0
  6 16  1  0  0  0  0
  7 17  1  0  0  0  0
  9 18  1  0  0  0  0
  9 19  1  0  0  0  0
  9 20  1  0  0  0  0
 10 21  1  0  0  0  0
 10 22  1  0  0  0  0
 11 23  1  0  0  0  0
 11 24  1  0  0  0  0
 12 25  1  0  0  0  0
 12 26  1  0  0  0  0
M  END
$$$$
