C16H18N2NaO4S
APtclcactv10092412223D 0   0.00000     0.00000
 
 42 43  0  0  0  0  0  0  0  0999 V2000
   15.0260    4.2146    0.4874 Na  0  4  0  0  0  0  0  0  0  0  0  0
    3.9237   -0.9222    0.1835 C   0  0  0  0  0  0  0  0  0  0  0  0
    3.2479   -3.2106    0.3821 C   0  0  0  0  0  0  0  0  0  0  0  0
    5.1731   -1.3285   -0.2464 C   0  0  0  0  0  0  0  0  0  0  0  0
    4.4973   -3.6169   -0.0478 C   0  0  0  0  0  0  0  0  0  0  0  0
    5.4598   -2.6759   -0.3623 C   0  0  0  0  0  0  0  0  0  0  0  0
    1.5990   -1.4203    0.9663 C   0  0  0  0  0  0  0  0  0  0  0  0
   -4.2137    0.8188    2.5929 C   0  0  0  0  0  0  0  0  0  0  0  0
   -5.7526    0.1604    0.7035 C   0  0  0  0  0  0  0  0  0  0  0  0
   -0.9213   -0.6858    0.8503 H   0  0  0  0  0  0  0  0  0  0  0  0
    2.9610   -1.8632    0.4976 C   0  0  0  0  0  0  0  0  0  0  0  0
   -4.9890    2.5026   -1.2333 O   0  0  0  0  0  0  0  0  0  0  0  0
   -1.2756    1.6641   -1.9360 O   0  0  0  0  0  0  0  0  0  0  0  0
    1.1040   -1.4738   -1.3406 O   0  0  0  0  0  0  0  0  0  0  0  0
   -4.6040    3.4702    0.7158 O   0  0  0  0  0  0  0  0  0  0  0  0
   -4.4305    2.4700   -0.1623 C   0  0  0  0  0  0  0  0  0  0  0  0
    0.6881   -1.2541   -0.2227 C   0  0  0  0  0  0  0  0  0  0  0  0
   -3.5391    1.3063    0.1875 C   0  0  0  0  0  0  0  0  0  0  0  0
   -1.4742   -0.7000   -1.1997 C   0  0  0  0  0  0  0  0  0  0  0  0
   -1.8847    0.7219   -1.4753 C   0  0  0  0  0  0  0  0  0  0  0  0
   -5.1850    4.1949    0.4466 H   0  0  0  0  0  0  0  0  0  0  0  0
   -0.5887   -0.8615   -0.0438 N   0  0  0  0  0  0  0  0  0  0  0  0
   -2.9578   -0.8480   -0.8824 C   0  0  0  0  0  0  0  0  0  0  0  0
   -4.2980    0.3443    1.1408 C   0  0  0  0  0  0  0  0  0  0  0  0
   -3.3190   -1.1949    0.8809 S   0  0  0  0  0  0  0  0  0  0  0  0
   -3.1590    0.5989   -1.0386 N   0  0  0  0  0  0  0  0  0  0  0  0
   -2.6423    1.6747    0.6855 H   0  0  0  0  0  0  0  0  0  0  0  0
   -3.5207   -1.4694   -1.5789 H   0  0  0  0  0  0  0  0  0  0  0  0
   -4.6569    1.8111    2.6772 H   0  0  0  0  0  0  0  0  0  0  0  0
   -4.7551    0.1235    3.2344 H   0  0  0  0  0  0  0  0  0  0  0  0
   -3.1692    0.8600    2.9017 H   0  0  0  0  0  0  0  0  0  0  0  0
   -5.7794   -0.2569   -0.3031 H   0  0  0  0  0  0  0  0  0  0  0  0
   -6.2558   -0.5187    1.3918 H   0  0  0  0  0  0  0  0  0  0  0  0
   -6.2589    1.1256    0.7103 H   0  0  0  0  0  0  0  0  0  0  0  0
   -1.1443   -1.2523   -2.0796 H   0  0  0  0  0  0  0  0  0  0  0  0
    1.1846   -2.1708    1.6394 H   0  0  0  0  0  0  0  0  0  0  0  0
    1.6871   -0.4696    1.4921 H   0  0  0  0  0  0  0  0  0  0  0  0
    3.7012    0.1303    0.2784 H   0  0  0  0  0  0  0  0  0  0  0  0
    2.4957   -3.9457    0.6275 H   0  0  0  0  0  0  0  0  0  0  0  0
    5.9251   -0.5933   -0.4921 H   0  0  0  0  0  0  0  0  0  0  0  0
    4.7215   -4.6695   -0.1376 H   0  0  0  0  0  0  0  0  0  0  0  0
    6.4357   -2.9933   -0.6989 H   0  0  0  0  0  0  0  0  0  0  0  0
 12 16  2  0  0  0  0
 15 16  1  0  0  0  0
 16 18  1  0  0  0  0
 18 26  1  0  0  0  0
 18 24  1  0  0  0  0
 23 26  1  0  0  0  0
 20 26  1  0  0  0  0
  8 24  1  0  0  0  0
  9 24  1  0  0  0  0
 24 25  1  0  0  0  0
 23 25  1  0  0  0  0
 19 23  1  0  0  0  0
 19 20  1  0  0  0  0
 13 20  2  0  0  0  0
 19 22  1  0  0  0  0
 17 22  1  0  0  0  0
  7 17  1  0  0  0  0
 14 17  2  0  0  0  0
  7 11  1  0  0  0  0
  2 11  2  0  0  0  0
  3 11  1  0  0  0  0
  2  4  1  0  0  0  0
  3  5  2  0  0  0  0
  4  6  2  0  0  0  0
  5  6  1  0  0  0  0
 15 21  1  0  0  0  0
 18 27  1  0  0  0  0
 23 28  1  0  0  0  0
  8 29  1  0  0  0  0
  8 30  1  0  0  0  0
  8 31  1  0  0  0  0
  9 32  1  0  0  0  0
  9 33  1  0  0  0  0
  9 34  1  0  0  0  0
 19 35  1  0  0  0  0
 10 22  1  0  0  0  0
  7 36  1  0  0  0  0
  7 37  1  0  0  0  0
  2 38  1  0  0  0  0
  3 39  1  0  0  0  0
  4 40  1  0  0  0  0
  5 41  1  0  0  0  0
  6 42  1  0  0  0  0
M  RAD  1   1   2
M  END
$$$$
