C6H6O
APtclcactv10022318573D 0   0.00000     0.00000
 
 13 13  0  0  0  0  0  0  0  0999 V2000
   -0.9109    0.0001   -0.0188 C   0  0  0  0  0  0  0  0  0  0  0  0
   -0.2162   -1.2007   -0.0109 C   0  0  0  0  0  0  0  0  0  0  0  0
    1.1651   -1.1981    0.0047 C   0  0  0  0  0  0  0  0  0  0  0  0
    1.8553   -0.0001    0.0125 C   0  0  0  0  0  0  0  0  0  0  0  0
    1.1652    1.1980    0.0050 C   0  0  0  0  0  0  0  0  0  0  0  0
   -0.2161    1.2008   -0.0110 C   0  0  0  0  0  0  0  0  0  0  0  0
   -2.2698    0.0001   -0.0398 O   0  0  0  0  0  0  0  0  0  0  0  0
   -0.7549   -2.1368   -0.0165 H   0  0  0  0  0  0  0  0  0  0  0  0
    1.7064   -2.1327    0.0113 H   0  0  0  0  0  0  0  0  0  0  0  0
    2.9352   -0.0001    0.0247 H   0  0  0  0  0  0  0  0  0  0  0  0
    1.7066    2.1325    0.0114 H   0  0  0  0  0  0  0  0  0  0  0  0
   -0.7547    2.1369   -0.0168 H   0  0  0  0  0  0  0  0  0  0  0  0
   -2.6767   -0.0019    0.8374 H   0  0  0  0  0  0  0  0  0  0  0  0
  1  2  2  0  0  0  0
  2  3  1  0  0  0  0
  3  4  2  0  0  0  0
  4  5  1  0  0  0  0
  5  6  2  0  0  0  0
  1  6  1  0  0  0  0
  1  7  1  0  0  0  0
  2  8  1  0  0  0  0
  3  9  1  0  0  0  0
  4 10  1  0  0  0  0
  5 11  1  0  0  0  0
  6 12  1  0  0  0  0
  7 13  1  0  0  0  0
M  END
$$$$
