C19H28O2
APtclcactv10092412243D 0   0.00000     0.00000
 
 49 52  0  0  1  0  0  0  0  0999 V2000
    0.5181    0.8057   -0.1619 C   0  0  2  0  0  0  0  0  0  0  0  0
   -0.3333   -0.3966    0.2797 C   0  0  1  0  0  0  0  0  0  0  0  0
    1.8303    0.7339    0.5968 C   0  0  1  0  0  0  0  0  0  0  0  0
   -1.6470   -0.3791   -0.5028 C   0  0  1  0  0  0  0  0  0  0  0  0
    2.5570   -0.5576    0.1338 C   0  0  2  0  0  0  0  0  0  0  0  0
    3.9762   -0.3693    0.6606 C   0  0  2  0  0  0  0  0  0  0  0  0
   -1.2746   -0.4689   -1.9840 C   0  0  0  0  0  0  0  0  0  0  0  0
    2.5756   -0.6229   -1.3947 C   0  0  0  0  0  0  0  0  0  0  0  0
    5.8365   -0.9085    0.0694 H   0  0  0  0  0  0  0  0  0  0  0  0
   -5.5361   -0.1461    0.5323 O   0  0  0  0  0  0  0  0  0  0  0  0
   -0.2089    2.1084    0.1731 C   0  0  0  0  0  0  0  0  0  0  0  0
    0.3911   -1.7167    0.0332 C   0  0  0  0  0  0  0  0  0  0  0  0
    2.8624    1.8123    0.2497 C   0  0  0  0  0  0  0  0  0  0  0  0
   -1.5202    2.1925   -0.6165 C   0  0  0  0  0  0  0  0  0  0  0  0
   -2.4943   -1.5924   -0.2050 C   0  0  0  0  0  0  0  0  0  0  0  0
    1.7793   -1.7335    0.6926 C   0  0  0  0  0  0  0  0  0  0  0  0
    4.2041    1.1627    0.6859 C   0  0  0  0  0  0  0  0  0  0  0  0
   -3.4983   -1.3376    0.9187 C   0  0  0  0  0  0  0  0  0  0  0  0
    4.9163   -0.9953   -0.2147 O   0  0  0  0  0  0  0  0  0  0  0  0
   -4.3230   -0.1253    0.5294 C   0  0  0  0  0  0  0  0  0  0  0  0
   -3.5668    1.0760    0.1490 C   0  0  0  0  0  0  0  0  0  0  0  0
   -2.3247    0.9411   -0.3082 C   0  0  0  0  0  0  0  0  0  0  0  0
    0.7100    0.7457   -1.2332 H   0  0  0  0  0  0  0  0  0  0  0  0
   -0.5486   -0.3124    1.3449 H   0  0  0  0  0  0  0  0  0  0  0  0
    1.6455    0.7025    1.6705 H   0  0  0  0  0  0  0  0  0  0  0  0
   -0.4267    2.1372    1.2407 H   0  0  0  0  0  0  0  0  0  0  0  0
    0.4261    2.9549   -0.0884 H   0  0  0  0  0  0  0  0  0  0  0  0
   -0.2064   -2.5319    0.4414 H   0  0  0  0  0  0  0  0  0  0  0  0
    0.5056   -1.8645   -1.0406 H   0  0  0  0  0  0  0  0  0  0  0  0
    2.8625    2.0156   -0.8212 H   0  0  0  0  0  0  0  0  0  0  0  0
    2.6731    2.7240    0.8164 H   0  0  0  0  0  0  0  0  0  0  0  0
   -2.0798    3.0765   -0.3106 H   0  0  0  0  0  0  0  0  0  0  0  0
   -1.3063    2.2407   -1.6842 H   0  0  0  0  0  0  0  0  0  0  0  0
   -3.0376   -1.8739   -1.1071 H   0  0  0  0  0  0  0  0  0  0  0  0
   -1.8421   -2.4165    0.0841 H   0  0  0  0  0  0  0  0  0  0  0  0
   -0.7264   -1.3934   -2.1655 H   0  0  0  0  0  0  0  0  0  0  0  0
   -2.1820   -0.4600   -2.5880 H   0  0  0  0  0  0  0  0  0  0  0  0
   -0.6501    0.3827   -2.2540 H   0  0  0  0  0  0  0  0  0  0  0  0
    2.2924   -2.6649    0.4534 H   0  0  0  0  0  0  0  0  0  0  0  0
    1.6781   -1.6315    1.7731 H   0  0  0  0  0  0  0  0  0  0  0  0
    4.0638   -0.7821    1.6656 H   0  0  0  0  0  0  0  0  0  0  0  0
    3.1007    0.2470   -1.7891 H   0  0  0  0  0  0  0  0  0  0  0  0
    3.0868   -1.5313   -1.7133 H   0  0  0  0  0  0  0  0  0  0  0  0
    1.5524   -0.6309   -1.7705 H   0  0  0  0  0  0  0  0  0  0  0  0
    4.4659    1.4855    1.6935 H   0  0  0  0  0  0  0  0  0  0  0  0
    4.9958    1.4347   -0.0122 H   0  0  0  0  0  0  0  0  0  0  0  0
   -4.0134    2.0552    0.2390 H   0  0  0  0  0  0  0  0  0  0  0  0
   -4.1483   -2.2044    1.0377 H   0  0  0  0  0  0  0  0  0  0  0  0
   -2.9685   -1.1408    1.8507 H   0  0  0  0  0  0  0  0  0  0  0  0
  1  2  1  0  0  0  0
  1  3  1  0  0  0  0
  1 11  1  0  0  0  0
  2  4  1  0  0  0  0
  2 12  1  0  0  0  0
  3  5  1  0  0  0  0
  3 13  1  0  0  0  0
 11 14  1  0  0  0  0
  4 22  1  0  0  0  0
  4 15  1  0  0  0  0
  4  7  1  0  0  0  0
 12 16  1  0  0  0  0
  5  6  1  0  0  0  0
  5  8  1  0  0  0  0
 13 17  1  0  0  0  0
 21 22  2  0  0  0  0
 15 18  1  0  0  0  0
  6 19  1  0  0  0  0
 20 21  1  0  0  0  0
 10 20  2  0  0  0  0
  5 16  1  0  0  0  0
 14 22  1  0  0  0  0
  6 17  1  0  0  0  0
 18 20  1  0  0  0  0
  1 23  1  0  0  0  0
  2 24  1  0  0  0  0
  3 25  1  0  0  0  0
 11 26  1  0  0  0  0
 11 27  1  0  0  0  0
 12 28  1  0  0  0  0
 12 29  1  0  0  0  0
 13 30  1  0  0  0  0
 13 31  1  0  0  0  0
 14 32  1  0  0  0  0
 14 33  1  0  0  0  0
 15 34  1  0  0  0  0
 15 35  1  0  0  0  0
  7 36  1  0  0  0  0
  7 37  1  0  0  0  0
  7 38  1  0  0  0  0
 16 39  1  0  0  0  0
 16 40  1  0  0  0  0
  6 41  1  0  0  0  0
  8 42  1  0  0  0  0
  8 43  1  0  0  0  0
  8 44  1  0  0  0  0
 17 45  1  0  0  0  0
 17 46  1  0  0  0  0
 21 47  1  0  0  0  0
 18 48  1  0  0  0  0
 18 49  1  0  0  0  0
  9 19  1  0  0  0  0
M  END
$$$$
